130904
  -OEChem-05121723213D

 72 76  0     1  0  0  0  0  0999 V2000
    3.7817   -0.1842   -0.9120 O   0  0  0  0  0  0  0  0  0  0  0  0
    4.6139    2.5098    0.6977 O   0  0  0  0  0  0  0  0  0  0  0  0
    5.9519    0.2912   -0.2788 O   0  0  0  0  0  0  0  0  0  0  0  0
   -3.4475   -5.7537   -1.2233 O   0  0  0  0  0  0  0  0  0  0  0  0
   -4.1820    4.3140    0.1882 N   0  0  0  0  0  0  0  0  0  0  0  0
    1.7399    0.5063    0.3221 C   0  0  1  0  0  0  0  0  0  0  0  0
    1.6284   -0.8879    0.9756 C   0  0  2  0  0  0  0  0  0  0  0  0
    3.2849    0.5984    0.1692 C   0  0  1  0  0  0  0  0  0  0  0  0
    0.1952   -1.2665    1.3645 C   0  0  1  0  0  0  0  0  0  0  0  0
    0.9250    0.4515   -0.9805 C   0  0  0  0  0  0  0  0  0  0  0  0
    2.6859   -0.8482    2.0770 C   0  0  0  0  0  0  0  0  0  0  0  0
    3.8319   -0.0089    1.4802 C   0  0  0  0  0  0  0  0  0  0  0  0
   -0.5570   -0.0040   -0.8035 C   0  0  1  0  0  0  0  0  0  0  0  0
   -0.7229   -1.2256    0.1245 C   0  0  0  0  0  0  0  0  0  0  0  0
    1.2402    1.6618    1.2280 C   0  0  0  0  0  0  0  0  0  0  0  0
    0.1855   -2.6252    2.0886 C   0  0  0  0  0  0  0  0  0  0  0  0
   -1.6332   -2.2086   -0.1080 C   0  0  0  0  0  0  0  0  0  0  0  0
    3.8266    1.9746   -0.0813 C   0  0  0  0  0  0  0  0  0  0  0  0
   -1.2299   -3.1680    2.1953 C   0  0  0  0  0  0  0  0  0  0  0  0
   -1.5261    1.1506   -0.5385 C   0  0  0  0  0  0  0  0  0  0  0  0
   -1.7974   -3.3406    0.8134 C   0  0  0  0  0  0  0  0  0  0  0  0
   -2.6265   -2.2372   -1.2530 C   0  0  0  0  0  0  0  0  0  0  0  0
    3.3616    2.6672   -1.3336 C   0  0  0  0  0  0  0  0  0  0  0  0
   -2.4092   -4.4849    0.4651 C   0  0  0  0  0  0  0  0  0  0  0  0
   -2.6582   -3.6016   -1.9298 C   0  0  0  0  0  0  0  0  0  0  0  0
    5.1421   -0.2518   -1.0180 C   0  0  0  0  0  0  0  0  0  0  0  0
   -1.5054    2.2732   -1.3609 C   0  0  0  0  0  0  0  0  0  0  0  0
   -2.4223    1.0708    0.5232 C   0  0  0  0  0  0  0  0  0  0  0  0
   -2.9067   -4.6934   -0.9173 C   0  0  0  0  0  0  0  0  0  0  0  0
   -2.3887    3.3253   -1.1194 C   0  0  0  0  0  0  0  0  0  0  0  0
   -3.3057    2.1229    0.7648 C   0  0  0  0  0  0  0  0  0  0  0  0
    5.5174   -1.1038   -2.1924 C   0  0  0  0  0  0  0  0  0  0  0  0
   -3.2889    3.2502   -0.0565 C   0  0  0  0  0  0  0  0  0  0  0  0
   -4.6578    5.1390   -0.9043 C   0  0  0  0  0  0  0  0  0  0  0  0
   -4.6467    4.5872    1.5337 C   0  0  0  0  0  0  0  0  0  0  0  0
    1.9678   -1.6445    0.2481 H   0  0  0  0  0  0  0  0  0  0  0  0
   -0.1981   -0.5340    2.0798 H   0  0  0  0  0  0  0  0  0  0  0  0
    1.3953   -0.2799   -1.6536 H   0  0  0  0  0  0  0  0  0  0  0  0
    0.9903    1.4028   -1.5119 H   0  0  0  0  0  0  0  0  0  0  0  0
    3.0279   -1.8525    2.3486 H   0  0  0  0  0  0  0  0  0  0  0  0
    2.2989   -0.3747    2.9866 H   0  0  0  0  0  0  0  0  0  0  0  0
    4.1162    0.7455    2.2224 H   0  0  0  0  0  0  0  0  0  0  0  0
    4.6853   -0.6830    1.3700 H   0  0  0  0  0  0  0  0  0  0  0  0
   -0.8230   -0.3339   -1.8165 H   0  0  0  0  0  0  0  0  0  0  0  0
    1.8735    1.8078    2.1092 H   0  0  0  0  0  0  0  0  0  0  0  0
    1.2223    2.6127    0.6866 H   0  0  0  0  0  0  0  0  0  0  0  0
    0.2286    1.5000    1.6029 H   0  0  0  0  0  0  0  0  0  0  0  0
    0.6082   -2.5145    3.0944 H   0  0  0  0  0  0  0  0  0  0  0  0
    0.8181   -3.3490    1.5569 H   0  0  0  0  0  0  0  0  0  0  0  0
   -1.8603   -2.4775    2.7697 H   0  0  0  0  0  0  0  0  0  0  0  0
   -1.2119   -4.1171    2.7442 H   0  0  0  0  0  0  0  0  0  0  0  0
   -3.6221   -2.0106   -0.8459 H   0  0  0  0  0  0  0  0  0  0  0  0
   -2.4383   -1.4826   -2.0184 H   0  0  0  0  0  0  0  0  0  0  0  0
    2.4134    3.1772   -1.1592 H   0  0  0  0  0  0  0  0  0  0  0  0
    4.1087    3.4149   -1.6181 H   0  0  0  0  0  0  0  0  0  0  0  0
    3.2703    1.9675   -2.1671 H   0  0  0  0  0  0  0  0  0  0  0  0
   -2.5288   -5.3082    1.1612 H   0  0  0  0  0  0  0  0  0  0  0  0
   -1.7127   -3.8127   -2.4418 H   0  0  0  0  0  0  0  0  0  0  0  0
   -3.4672   -3.6207   -2.6681 H   0  0  0  0  0  0  0  0  0  0  0  0
   -0.8319    2.3456   -2.2094 H   0  0  0  0  0  0  0  0  0  0  0  0
   -2.4738    0.2211    1.1947 H   0  0  0  0  0  0  0  0  0  0  0  0
   -2.3456    4.1911   -1.7740 H   0  0  0  0  0  0  0  0  0  0  0  0
   -4.0008    2.0282    1.5942 H   0  0  0  0  0  0  0  0  0  0  0  0
    5.1209   -0.6633   -3.1105 H   0  0  0  0  0  0  0  0  0  0  0  0
    5.1317   -2.1168   -2.0528 H   0  0  0  0  0  0  0  0  0  0  0  0
    6.6072   -1.1531   -2.2714 H   0  0  0  0  0  0  0  0  0  0  0  0
   -4.9123    4.5343   -1.7822 H   0  0  0  0  0  0  0  0  0  0  0  0
   -3.9044    5.8819   -1.1863 H   0  0  0  0  0  0  0  0  0  0  0  0
   -5.5666    5.6828   -0.6227 H   0  0  0  0  0  0  0  0  0  0  0  0
   -3.8329    4.5082    2.2635 H   0  0  0  0  0  0  0  0  0  0  0  0
   -5.4496    3.8975    1.8147 H   0  0  0  0  0  0  0  0  0  0  0  0
   -5.0437    5.6054    1.6152 H   0  0  0  0  0  0  0  0  0  0  0  0
  1  8  1  0  0  0  0
  1 26  1  0  0  0  0
  2 18  2  0  0  0  0
  3 26  2  0  0  0  0
  4 29  2  0  0  0  0
  5 33  1  0  0  0  0
  5 34  1  0  0  0  0
  5 35  1  0  0  0  0
  6  7  1  0  0  0  0
  6  8  1  0  0  0  0
  6 10  1  0  0  0  0
  6 15  1  0  0  0  0
  7  9  1  0  0  0  0
  7 11  1  0  0  0  0
  7 36  1  0  0  0  0
  8 12  1  0  0  0  0
  8 18  1  0  0  0  0
  9 14  1  0  0  0  0
  9 16  1  0  0  0  0
  9 37  1  0  0  0  0
 10 13  1  0  0  0  0
 10 38  1  0  0  0  0
 10 39  1  0  0  0  0
 11 12  1  0  0  0  0
 11 40  1  0  0  0  0
 11 41  1  0  0  0  0
 12 42  1  0  0  0  0
 12 43  1  0  0  0  0
 13 14  1  0  0  0  0
 13 20  1  0  0  0  0
 13 44  1  0  0  0  0
 14 17  2  0  0  0  0
 15 45  1  0  0  0  0
 15 46  1  0  0  0  0
 15 47  1  0  0  0  0
 16 19  1  0  0  0  0
 16 48  1  0  0  0  0
 16 49  1  0  0  0  0
 17 21  1  0  0  0  0
 17 22  1  0  0  0  0
 18 23  1  0  0  0  0
 19 21  1  0  0  0  0
 19 50  1  0  0  0  0
 19 51  1  0  0  0  0
 20 27  2  0  0  0  0
 20 28  1  0  0  0  0
 21 24  2  0  0  0  0
 22 25  1  0  0  0  0
 22 52  1  0  0  0  0
 22 53  1  0  0  0  0
 23 54  1  0  0  0  0
 23 55  1  0  0  0  0
 23 56  1  0  0  0  0
 24 29  1  0  0  0  0
 24 57  1  0  0  0  0
 25 29  1  0  0  0  0
 25 58  1  0  0  0  0
 25 59  1  0  0  0  0
 26 32  1  0  0  0  0
 27 30  1  0  0  0  0
 27 60  1  0  0  0  0
 28 31  2  0  0  0  0
 28 61  1  0  0  0  0
 30 33  2  0  0  0  0
 30 62  1  0  0  0  0
 31 33  1  0  0  0  0
 31 63  1  0  0  0  0
 32 64  1  0  0  0  0
 32 65  1  0  0  0  0
 32 66  1  0  0  0  0
 34 67  1  0  0  0  0
 34 68  1  0  0  0  0
 34 69  1  0  0  0  0
 35 70  1  0  0  0  0
 35 71  1  0  0  0  0
 35 72  1  0  0  0  0
M  END
> <PUBCHEM_COMPOUND_CID>
130904

> <PUBCHEM_CONFORMER_RMSD>
1

> <PUBCHEM_CONFORMER_DIVERSEORDER>
1
3
2

> <PUBCHEM_MMFF94_PARTIAL_CHARGES>
33
1 -0.43
13 0.28
14 -0.28
17 -0.14
18 0.45
19 0.14
2 -0.57
20 -0.14
21 -0.14
22 0.14
23 0.06
24 -0.14
25 0.06
26 0.66
27 -0.15
28 -0.15
29 0.49
3 -0.57
30 -0.15
31 -0.15
32 0.06
33 0.1
34 0.37
35 0.37
4 -0.57
5 -0.84
57 0.15
60 0.15
61 0.15
62 0.15
63 0.15
8 0.34
9 0.14

> <PUBCHEM_EFFECTIVE_ROTOR_COUNT>
6.8

> <PUBCHEM_PHARMACOPHORE_FEATURES>
9
1 2 acceptor
1 3 acceptor
1 4 acceptor
1 5 cation
5 6 7 8 11 12 rings
6 17 21 22 24 25 29 rings
6 20 27 28 30 31 33 rings
6 6 7 9 10 13 14 rings
6 9 14 16 17 19 21 rings

> <PUBCHEM_HEAVY_ATOM_COUNT>
35

> <PUBCHEM_ATOM_DEF_STEREO_COUNT>
5

> <PUBCHEM_ATOM_UDEF_STEREO_COUNT>
0

> <PUBCHEM_BOND_DEF_STEREO_COUNT>
0

> <PUBCHEM_BOND_UDEF_STEREO_COUNT>
0

> <PUBCHEM_ISOTOPIC_ATOM_COUNT>
0

> <PUBCHEM_COMPONENT_COUNT>
1

> <PUBCHEM_CACTVS_TAUTO_COUNT>
10

> <PUBCHEM_CONFORMER_ID>
0001FF5800000001

> <PUBCHEM_MMFF94_ENERGY>
128.0306

> <PUBCHEM_FEATURE_SELFOVERLAP>
45.778

> <PUBCHEM_SHAPE_FINGERPRINT>
10006869 2 18259981553514680459
10258939 38 15690613175927022453
10815517 723 18340780329380798779
11115154 58 17977937218796716567
11331351 85 17983307203321302971
11445158 3 17393031842743536582
11505856 67 18189071934803632381
11578080 2 16984108337277048193
11763715 3 17977402842384132526
11991303 11 18265068971502442492
12160290 23 18188195576849007067
12788726 201 18337378457193776475
13540713 5 18041263414788089834
13690498 29 18196959827495639566
13757389 114 18263663812890975708
140371 6 17398957566060903993
14068700 686 18054506083099389068
14400156 350 17541651716909893269
14790565 3 18263924328422103741
14856354 85 16806474455824944824
14955137 171 17902246820886343739
15131766 46 15214740171396834942
15200665 1 18412270549348407683
15361156 5 18192450760311363598
15419009 47 18337959970476230526
15420108 30 17904735827010398203
15927050 60 18337392617522298234
15968369 153 18118983608918852592
16114785 44 18261686951123767472
1813 80 17624433255980882887
18393751 57 16833454577433174752
19311894 1 18409727348941175552
21033648 29 18339638928404884696
21120745 212 18121226634331006413
21344244 181 17909003010532219014
23558518 356 18334292115058982948
23559900 14 17462267339068463114
23929065 36 18123724686178815992
24180151 214 11429588676335954175
24941158 1 17404614094526061601
283562 15 18118109501733397370
3178227 256 17613160672041279594
3388396 114 17470190492404105316
3610482 184 17750541562636440742
3729539 64 17618525189632492534
38695281 34 18122630452711989317
4058900 60 17904498302429356697
44062 13 18341062847971493070
4461854 278 18267049218895597475
508180 173 17974267023397980151
5252454 2 18115866304713273772
6058803 2 18260256478486461296
613672 6 17832986422804673202
6677587 24 15031109828209206055
6679774 75 17755296764831290739
70251023 43 18053383485642361642
7399639 24 17626374981252969488
9658208 31 18342172228932682280

> <PUBCHEM_SHAPE_MULTIPOLES>
691.83
9.94
7.65
1.97
8.97
4.73
-0.22
-10.05
2.45
-15.31
1.29
0.56
1.06
-1.5

> <PUBCHEM_SHAPE_SELFOVERLAP>
1504.574

> <PUBCHEM_SHAPE_VOLUME>
374.9

> <PUBCHEM_COORDINATE_TYPE>
2
5
10

$$$$
